  168

Se      9.707940    0.655680    4.358007
Se      9.707934    0.654305    2.090100
Mo      9.707930    2.921070    3.222634
Se      9.707919    6.560696    4.886739
Se      9.707921    6.559888    1.555537
Mo      9.707913    8.434060    3.220745
Se      9.707901   12.170385    1.552682
Se      9.707901   12.169588    4.889456
Mo      9.707901   14.044134    3.221613
Se      9.707909   17.782088    4.890905
Se      9.707904   17.783520    1.555050
Mo      9.707932   19.655299    3.223811
Se      9.707946   23.392232    4.935896
Se      9.707948   23.394420    1.516099
Mo      0.000102   25.139648    3.227140
Mo      0.000157   27.753023    3.228722
Se      0.000125   29.499878    1.519528
Se      0.000122   29.498829    4.939254
Mo      0.000237   33.237423    3.229707
Se      0.000263   35.109560    1.561324
Se      0.000268   35.110390    4.897139
Mo      0.000287   38.848851    3.228091
Se      0.000292   40.723096    1.559591
Se      0.000291   40.723116    4.896302
Mo      0.000302   44.459286    3.228784
Se      0.000297   46.333853    1.564068
Se      0.000303   46.332363    4.895226
Mo      0.000292   49.972378    3.231557
Se      0.000291   52.239041    2.098730
Se      0.000308   52.237903    4.366630
Se      1.617920    3.741450    4.923724
Se      1.617920    3.739949    1.520751
Mo      1.617964    5.618537    3.221420
Se      1.617927    9.364105    4.889229
Se      1.617929    9.364181    1.552224
Mo      1.617954   11.238818    3.220873
Se      1.617847   14.975740    4.890451
Se      1.617856   14.976885    1.553400
Mo      1.617926   16.849201    3.222609
Se      1.617931   20.588146    4.889434
Se      1.617943   20.589971    1.559178
Mo      1.617981   22.466585    3.225391
Se      1.617594   26.447268    1.655052
Se      1.617598   26.445452    4.800839
Mo      1.618196   30.426112    3.229614
Se      1.618249   32.303692    1.564617
Se      1.618227   32.303590    4.894887
Mo      1.618303   36.043644    3.228943
Se      1.618277   37.916173    1.559851
Se      1.618250   37.917025    4.896809
Mo      1.618322   41.654347    3.228009
Se      1.618284   43.529573    1.559991
Se      1.618275   43.528678    4.896944
Mo      1.618360   47.274851    3.230109
Se      1.618270   49.153589    1.529663
Se      1.618335   49.151843    4.932599
Se      3.235813    0.655640    4.357993
Se      3.235820    0.654271    2.090064
Mo      3.235863    2.921006    3.222633
Se      3.235899    6.560676    4.886779
Se      3.235909    6.559883    1.555492
Mo      3.235878    8.434012    3.220747
Se      3.235894   12.169632    4.889505
Se      3.235906   12.170428    1.552651
Mo      3.235836   14.044139    3.221619
Se      3.235921   17.782022    4.890958
Se      3.235918   17.783461    1.555030
Mo      3.235901   19.655267    3.223828
Se      3.235964   23.392366    4.935889
Se      3.235980   23.394525    1.516076
Mo      3.236006   25.139706    3.227120
Mo      3.236050   27.752992    3.228711
Se      3.236171   29.499779    1.519489
Se      3.236128   29.498693    4.939280
Mo      3.236201   33.237469    3.229706
Se      3.236262   35.109616    1.561265
Se      3.236302   35.110399    4.897149
Mo      3.236254   38.848877    3.228118
Se      3.236298   40.723081    1.559571
Se      3.236298   40.723145    4.896352
Mo      3.236264   44.459279    3.228789
Se      3.236314   46.333827    1.563990
Se      3.236302   46.332299    4.895266
Mo      3.236234   49.972436    3.231534
Se      3.236175   52.239063    2.098714
Se      3.236160   52.237903    4.366656
Se      4.853929    3.741425    4.923653
Se      4.853928    3.739923    1.520823
Mo      4.853923    5.618572    3.221421
Se      4.853910    9.364128    4.889172
Se      4.853912    9.364239    1.552281
Mo      4.853906   11.238889    3.220884
Se      4.853898   14.975696    4.890407
Se      4.853896   14.976855    1.553455
Mo      4.853898   16.849178    3.222617
Se      4.853928   20.588149    4.889419
Se      4.853925   20.589953    1.559210
Mo      4.853991   22.466633    3.225396
Se      4.854569   26.447312    1.655098
Se      4.854568   26.445489    4.800815
Mo      4.854192   30.426074    3.229623
Se      4.854215   32.303690    1.564669
Se      4.854211   32.303566    4.894842
Mo      4.854267   36.043628    3.228923
Se      4.854280   37.916185    1.559876
Se      4.854281   37.917016    4.896800
Mo      4.854296   41.654334    3.228007
Se      4.854311   43.529590    1.560060
Se      4.854309   43.528652    4.896924
Mo      4.854296   47.274799    3.230106
Se      4.854290   49.153609    1.529704
Se      4.854302   49.151861    4.932524
Se      6.472052    0.655638    4.357993
Se      6.472044    0.654271    2.090064
Mo      6.471995    2.921000    3.222632
Se      6.471944    6.560678    4.886781
Se      6.471926    6.559882    1.555491
Mo      6.471947    8.434012    3.220748
Se      6.471909   12.169635    4.889506
Se      6.471903   12.170433    1.552648
Mo      6.471962   14.044141    3.221619
Se      6.471879   17.782021    4.890958
Se      6.471879   17.783455    1.555029
Mo      6.471942   19.655254    3.223825
Se      6.472028   23.392267    4.935902
Se      6.472015   23.394426    1.516068
Mo      6.472006   25.139663    3.227126
Mo      6.472077   27.753053    3.228712
Se      6.472185   29.499884    1.519477
Se      6.472209   29.498800    4.939288
Mo      6.472255   33.237478    3.229704
Se      6.472214   35.110393    4.897153
Se      6.472271   35.109625    1.561270
Mo      6.472322   38.848872    3.228121
Se      6.472293   40.723076    1.559572
Se      6.472290   40.723145    4.896353
Mo      6.472349   44.459276    3.228787
Se      6.472293   46.332292    4.895268
Se      6.472283   46.333827    1.563992
Mo      6.472360   49.972439    3.231540
Se      6.472436   52.239066    2.098723
Se      6.472463   52.237904    4.366667
Se      8.089940    3.741449    4.923723
Se      8.089940    3.739947    1.520753
Mo      8.089879    5.618537    3.221419
Se      8.089895    9.364109    4.889226
Se      8.089890    9.364180    1.552224
Mo      8.089853   11.238821    3.220872
Se      8.089953   14.975745    4.890450
Se      8.089943   14.976884    1.553401
Mo      8.089876   16.849204    3.222609
Se      8.089936   20.588103    4.889447
Se      8.089926   20.589933    1.559162
Mo      8.089934   22.466569    3.225390
Se      8.090031   26.447265    1.655361
Se      8.090031   26.445453    4.800535
Mo      8.090127   30.426134    3.229615
Se      8.090205   32.303734    1.564600
Se      8.090216   32.303635    4.894904
Mo      8.090237   36.043643    3.228950
Se      8.090293   37.916164    1.559849
Se      8.090337   37.917023    4.896814
Mo      8.090268   41.654348    3.228007
Se      8.090331   43.529567    1.559985
Se      8.090326   43.528677    4.896944
Mo      8.090235   47.274851    3.230110
Se      8.090306   49.153588    1.529658
Se      8.090260   49.151842    4.932598
